LAMMPS (15 May 2015)
units 		real
atom_style 	full

pair_style 	lj/cut 14.0 # Allows cutoff beyond rcut
pair_modify 	mix arithmetic tail yes

bond_style 	harmonic
angle_style 	harmonic
dihedral_style 	opls

read_data 	data.pdms18
  orthogonal box = (0 0 0) to (59 59 59)
  reading atoms ...
  4 atoms
  scanning bonds ...
  scanning angles ...
  scanning dihedrals ...
  reading bonds ...
  3 bonds
  reading angles ...
  2 angles
  reading dihedrals ...
  1 dihedrals
velocity	all create 2000.0 4928459 mom yes rot yes dist gaussian		# Only used for first dynamics run
reset_timestep	0								# Only used for first dynamics run

atom_modify     sort 0 0.0

dump 		dump_1 all custom 40 dump.lammpstrj id element mol type q xu yu zu fx fy fz
dump_modify     dump_1 sort id
dump_modify     dump_1 element C C

thermo		400
thermo_style	custom step time ke pe evdwl ecoul epair ebond eangle edihed emol elong etail etotal temp press density
thermo_modify	line one format float %20.5f

timestep 	0.5
fix 		1 all nvt temp 2000.0 2000.0 100.0
fix_modify	1 energy yes
run 		10000
  1 neighbor list requests
  update every 1 steps, delay 10 steps, check yes
Step Time KinEng PotEng E_vdwl E_coul E_pair E_bond E_angle E_dihed E_mol E_long E_tail TotEng Temp Press Density
0              0.00000             17.88486              0.54035             -0.00010              0.00000             -0.00010              0.00250              0.53796              0.00000              0.54045              0.00000             -0.00010             18.42521           2000.00000              3.74985              0.00047
Averages over the last 13 of 26 rows, steps 5200 to 10000:
KinEng PotEng E_vdwl E_coul E_pair E_bond E_angle E_dihed E_mol E_long E_tail TotEng Temp Press Density
14.7976 3.65498 -0.0001 0 -0.0001 7.7526 8.79016 2.29101 18.8338 0 -0.0001 18.4525 1654.76 -3.21458 0.00047
Loop time of 0.0283301 on 1 procs for 10000 steps with 4 atoms

Pair  time (%) = 0.000636816 (2.24784)
Bond  time (%) = 0.00488591 (17.2464)
Neigh time (%) = 7.27177e-05 (0.25668)
Comm  time (%) = 0.00288939 (10.199)
Outpt time (%) = 0.00947189 (33.434)
Other time (%) = 0.0103734 (36.616)
